Circuit: * C:\Users\jpsae\Desktop\Pasa Alto Chebyshev\Filtro chebyII.asc

Direct Newton iteration for .op point succeeded.

Date: Fri Mar 08 14:39:23 2019
Total elapsed time: 0.040 seconds.

tnom = 27
temp = 27
method = trap
totiter = 4
traniter = 0
tranpoints = 0
accept = 0
rejected = 0
matrix size = 14
fillins = 4
solver = Normal
Matrix Compiler1:      48 opcodes
Matrix Compiler2: 1.38 KB object code size
